data_cif

_symmetry_space_group_name_H-M     'P 1'
_symmetry_Int_Tables_number        1
_symmetry_cell_setting             triclinic

_cell_length_a                       11.7206
_cell_length_b                       11.7206
_cell_length_c                       11.7206
_cell_angle_alpha                   90.0000
_cell_angle_beta                    90.0000
_cell_angle_gamma                   90.0000

loop_
_atom_site_label
_atom_site_fract_x
_atom_site_fract_y
_atom_site_fract_z
_atom_site_occupancy
  Fe1         0.00000      0.00000      0.00000  0.7200
  Fe1         0.00000      0.50000      0.50000  0.7200
  Fe2         0.00000      0.00000      0.00000  0.1400
  Fe2         0.50000      0.00000      0.50000  0.1400
  Fe2         0.50000      0.50000      1.00000  0.1400
  Fe2         0.00000      0.50000      0.50000  0.1400
  Fe2         0.50000      0.50000      0.50000  0.1400
  Fe2         0.50000      0.00000      1.00000  0.1400
  Si          0.37500      0.00000      0.25000  1.0000
  Si          0.25000      0.37500      1.00000  1.0000
  Si          0.00000      0.25000      0.37500  1.0000
  Si          0.12500      0.00000      0.75000  1.0000
  O           0.20015      0.28915      0.09208  1.0000
  O           0.54985      0.15792      0.53915  1.0000
  O           0.65792      0.53915      0.95015  1.0000
  O           0.34208      0.96085      0.95015  1.0000
