data_cif

_symmetry_space_group_name_H-M     'P 1'
_symmetry_Int_Tables_number        1
_symmetry_cell_setting             triclinic

_cell_length_a                       5.67
_cell_length_b                       5.68
_cell_length_c                       5.69
_cell_angle_alpha                   90.0000
_cell_angle_beta                    89.0000
_cell_angle_gamma                   91.0000

loop_
_atom_site_label
_atom_site_fract_x
_atom_site_fract_y
_atom_site_fract_z
_atom_site_occupancy
	Na 0 0 0 1 
	Na 0.5 0.5 0 1
	Na 0.5 0 0.5 1
	Na 0 0.5 0.5 1
	Cl 0 0 0.5 1
	Cl 0.5 0.5 0.5 1
	Cl 0.5 0 0 1
	Cl 0 0.5 0 1
