data_cif

_symmetry_space_group_name_H-M     'P 1'
_symmetry_Int_Tables_number        1
_symmetry_cell_setting             triclinic

_cell_length_a                        5.3814
_cell_length_b                        5.4418
_cell_length_c                        7.6409
_cell_angle_alpha                   90.0000
_cell_angle_beta                    90.0000
_cell_angle_gamma                   90.0000

loop_
_atom_site_label
_atom_site_fract_x
_atom_site_fract_y
_atom_site_fract_z
_atom_site_occupancy
  Ca          0.99370      0.03440      0.25000  1.0000
  Ca          0.49370      0.46560      0.75000  1.0000
  Ca          0.50630      0.53440      0.25000  1.0000
  Ca          0.00630      0.96560      0.75000  1.0000
  Ti          0.00000      0.50000      0.00000  1.0000
  Ti          0.50000      0.00000      0.00000  1.0000
  Ti          0.50000      0.00000      0.50000  1.0000
  Ti          0.00000      0.50000      0.50000  1.0000
  O           0.06800      0.48500      0.25000  1.0000
  O           0.56800      0.01500      0.75000  1.0000
  O           0.43200      0.98500      0.25000  1.0000
  O           0.93200      0.51500      0.75000  1.0000
  O           0.71200      0.28920      0.04020  1.0000
  O           0.21200      0.21080      0.95980  1.0000
  O           0.78800      0.78920      0.45980  1.0000
  O           0.28800      0.71080      0.54020  1.0000
  O           0.28800      0.71080      0.95980  1.0000
  O           0.78800      0.78920      0.04020  1.0000
  O           0.21200      0.21080      0.54020  1.0000
  O           0.71200      0.28920      0.45980  1.0000
